58

   S      5.839163      3.902219     16.490000
   A      1.768010      1.818149     15.414000
   P      8.331900      3.324663     14.016000
   S      7.042549     -0.240941     13.110000
   T      3.248882      1.221818     12.102000
   P      8.719737     -2.173388     10.636000
   S      5.580820     -4.300160      9.730000
   A      2.340696     -1.072276      8.654000
   P      5.801830     -6.849369      7.256000
   S      2.012307     -6.724954      6.350000
   T      2.231166     -2.664945      5.342000
   P      0.692721     -8.917214      3.876000
   S     -2.299939     -6.589135      2.970000
   A     -0.231292     -2.510124      1.894000
   P     -4.656084     -7.587077      0.496000
   S     -5.708786     -3.944581     -0.410000
   T     -1.779857     -2.898116     -1.418000
   P     -8.201524     -3.367025     -2.884000
   S     -6.912172      0.198579     -3.790000
   A     -2.393554     -0.508337     -4.866000
   P     -8.589360      2.131026     -6.264000
   S     -5.450443      4.257798     -7.170000
   T     -3.241090      0.844540     -8.178000
   P     -5.671453      6.807007     -9.644000
   S     -1.881930      6.682592    -10.550000
   A     -1.157918      2.166683    -11.626000
   P     -0.562344      8.874852    -13.024000
   S      2.430315      6.546773    -13.930000
   T     -0.133158      3.390799    -14.938000
   S      2.430315     -6.589135    -16.490000
   A      0.361668     -2.510124    -15.414000
   P      4.786461     -7.587077    -14.016000
   S      5.839163     -3.944581    -13.110000
   T      1.910234     -2.898116    -12.102000
   P      8.331900     -3.367025    -10.636000
   S      7.042549      0.198579     -9.730000
   A      2.523931     -0.508337     -8.654000
   P      8.719737      2.131026     -7.256000
   S      5.580820      4.257798     -6.350000
   T      3.371467      0.844540     -5.342000
   P      5.801830      6.807007     -3.876000
   S      2.012307      6.682592     -2.970000
   A      1.288295      2.166683     -1.894000
   P      0.692721      8.874852     -0.496000
   S     -2.299939      6.546773      0.410000
   T      0.263535      3.390799      1.418000
   P     -4.656084      7.544715      2.884000
   S     -5.708786      3.902219      3.790000
   A     -1.637633      1.818149      4.866000
   P     -8.201524      3.324663      6.264000
   S     -6.912172     -0.240941      7.170000
   T     -3.118505      1.221818      8.178000
   P     -8.589360     -2.173388      9.644000
   S     -5.450443     -4.300160     10.550000
   A     -2.210320     -1.072276     11.626000
   P     -5.671453     -6.849369     13.024000
   S     -1.881930     -6.724954     13.930000
   T     -2.100789     -2.664945     14.938000
