58

   S      5.846920      3.899698     16.490000
   A      1.775767      1.815629     15.414000
   P      8.339657      3.322143     14.016000
   S      7.050305     -0.243461     13.110000
   T      3.256638      1.219297     12.102000
   P      8.727494     -2.175908     10.636000
   S      5.588577     -4.302680      9.730000
   G      2.028175     -1.228967      8.636000
   P      5.809587     -6.851889      7.256000
   S      2.020064     -6.727475      6.350000
   A      1.296052     -2.211565      5.274000
   P      0.700478     -8.919734      3.876000
   S     -2.292182     -6.591656      2.970000
   T      0.271292     -3.435681      1.962000
   P     -4.648327     -7.589597      0.496000
   S     -5.701029     -3.947101     -0.410000
   A     -1.629876     -1.863032     -1.486000
   P     -8.193767     -3.369545     -2.884000
   S     -6.904415      0.196059     -3.790000
   T     -3.110748     -1.266700     -4.798000
   P     -8.581603      2.128505     -6.264000
   S     -5.442686      4.255278     -7.170000
   C     -2.989953      1.115441     -8.186000
   P     -5.663696      6.804486     -9.644000
   S     -1.874173      6.680072    -10.550000
   A     -1.150161      2.164162    -11.626000
   P     -0.554587      8.872332    -13.024000
   S      2.438072      6.544253    -13.930000
   T     -0.125401      3.388279    -14.938000
   S      2.438072     -6.591656    -16.490000
   A      0.369425     -2.512644    -15.414000
   P      4.794218     -7.589597    -14.016000
   S      5.846920     -3.947101    -13.110000
   T      1.917991     -2.900636    -12.102000
   P      8.339657     -3.369545    -10.636000
   S      7.050305      0.196059     -9.730000
   G      2.363197     -0.197876     -8.636000
   P      8.727494      2.128505     -7.256000
   S      5.588577      4.255278     -6.350000
   A      2.348453      1.027394     -5.274000
   P      5.809587      6.804486     -3.876000
   S      2.020064      6.680072     -2.970000
   T      2.238923      2.620063     -1.962000
   P      0.700478      8.872332     -0.496000
   S     -2.292182      6.544253      0.410000
   A     -0.223535      2.465242      1.486000
   P     -4.648327      7.542195      2.884000
   S     -5.701029      3.899698      3.790000
   T     -1.772100      2.853234      4.798000
   P     -8.193767      3.322143      6.264000
   S     -6.904415     -0.243461      7.170000
   C     -3.074563      0.855040      8.186000
   P     -8.581603     -2.175908      9.644000
   S     -5.442686     -4.302680     10.550000
   A     -2.202563     -1.074796     11.626000
   P     -5.663696     -6.851889     13.024000
   S     -1.874173     -6.727475     13.930000
   T     -2.093032     -2.667466     14.938000
