58

   S      5.825999      3.906496     16.490000
   G      1.802500      1.470182     15.396000
   P      8.318737      3.328940     14.016000
   S      7.029385     -0.236664     13.110000
   A      2.510767      0.470252     12.034000
   P      8.706573     -2.169111     10.636000
   S      5.567656     -4.295883      9.730000
   T      3.358303     -0.882625      8.722000
   P      5.788666     -6.845091      7.256000
   S      1.999143     -6.720677      6.350000
   A      1.275131     -2.204768      5.274000
   P      0.679557     -8.912937      3.876000
   S     -2.313102     -6.584858      2.970000
   T      0.250371     -3.428884      1.962000
   P     -4.669248     -7.582800      0.496000
   S     -5.721950     -3.940304     -0.410000
   A     -1.650797     -1.856234     -1.486000
   P     -8.214687     -3.362748     -2.884000
   S     -6.925335      0.202856     -3.790000
   T     -3.131668     -1.259903     -4.798000
   P     -8.602524      2.135303     -6.264000
   S     -5.463607      4.262075     -7.170000
   A     -2.223483      1.034191     -8.246000
   P     -5.684617      6.811284     -9.644000
   S     -1.895094      6.686870    -10.550000
   T     -2.113953      2.626861    -11.558000
   P     -0.575508      8.879129    -13.024000
   S      2.417152      6.551050    -13.930000
   C      0.188926      3.248100    -14.946000
   S      2.417152     -6.584858    -16.490000
   G      0.594101     -2.248885    -15.396000
   P      4.773297     -7.582800    -14.016000
   S      5.825999     -3.940304    -13.110000
   A      1.754846     -1.856234    -12.034000
   P      8.318737     -3.362748    -10.636000
   S      7.029385      0.202856     -9.730000
   T      3.235718     -1.259903     -8.722000
   P      8.706573      2.135303     -7.256000
   S      5.567656      4.262075     -6.350000
   A      2.327533      1.034191     -5.274000
   P      5.788666      6.811284     -3.876000
   S      1.999143      6.686870     -2.970000
   T      2.218002      2.626861     -1.962000
   P      0.679557      8.879129     -0.496000
   S     -2.313102      6.551050      0.410000
   A     -0.244455      2.472039      1.486000
   P     -4.669248      7.548992      2.884000
   S     -5.721950      3.906496      3.790000
   T     -1.793021      2.860031      4.798000
   P     -8.214687      3.328940      6.264000
   S     -6.925335     -0.236664      7.170000
   A     -2.406718      0.470252      8.246000
   P     -8.602524     -2.169111      9.644000
   S     -5.463607     -4.295883     10.550000
   T     -3.254254     -0.882625     11.558000
   P     -5.684617     -6.845091     13.024000
   S     -1.895094     -6.720677     13.930000
   C     -1.756341     -2.738816     14.946000
